>LTK|ENST00000263800|P29376-1|*
MGCWGQLLVWFGAAGAILCSSPGSQETFLRSSPLPLASPSPRDPKVSAPPSILEPASPLN
SPGTEGSWLFSTCGASGRHGPTQTQCDGAYAGTSVVVTVGAAGQLRGVQLWRVPGPGQYL
ISAYGAAGGKGAKNHLSRAHGVFVSAIFSLGLGESLYILVGQQGEDACPGGSPESQLVCL
GESRAVEEHAAMDGSEGVPGSRRWAGGGGGGGGATYVFRVRAGELEPLLVAAGGGGRAYL
RPRDRGRTQASPEKLENRSEAPGSGGRGGAAGGGGGWTSRAPSPQAGRSLQEGAEGGQGC
SEAWATLGWAAAGGFGGGGGACTAGGGGGGYRGGDASETDNLWADGEDGVSFIHPSSELF
LQPLAVTENHGEVEIRRHLNCSHCPLRDCQWQAELQLAECLCPEGMELAVDNVTCMDLHK
PPGPLVLMVAVVATSTLSLLMVCGVLIL----------------VKQKKWQGLQEMRLPS
PELELSKLRTSAIRTAPNPYYCQVGLGPAQSWPLPPGVTEVSPANVTLLRALGHGAFGEV
YEGLVIGLPGDSSPLQVAIKTLPELCSPQDELDFLMEALIISKFRHQNIVRCVGLSLRAT
PRLILLELMSGGDMKSFLRHSRPHLGQPSPLVMRDLLQLAQDIAQGCHYLEENHFIHRDI
AARNCLLSCAGPSRVAKIGDFGMARDIYRASYYRRGDRALLPVKWMPPEAFLEGIFTSKT
DSWSFGVLLWEIFSLGYMPYPGRTNQEVLDFVVGGGRMDPPRGCPGPVYRIMTQCWQHEP
ELRPSFASILERLQYCTQDPDVLNSLLPMELGPTPEEEGTSGLGNRSLECLRPPQPQELS
PEKLKSWGGSPLGPWLSSGLKPLKSRGLQPQNLWNPTYRS
>LTK|ENST00000355166|P29376-4|
MGCWGQLLVWFGAAGAILCSSPGSQETFLRSSPLPLASPSPRDPKVSAPPSILEPASPLN
SPGTEGSWLFSTCGASGRHGPTQTQCDGAYAGTSVVVTVGAAGQLRGVQLWRVPGPGQYL
ISAYGAAGGKGAKNHLSRAHGVFVSAIFSLGLGESLYILVGQQGEDACPGGSPESQLVCL
GESRAVEEHAAMDGSEGVPGSRRWAGGGGGGGGATYVFRVRAGELEPLLVAAGGGGRAYL
RPRDRGRTQASPEKLENRSEAPGSGGRGGAA-----------------------------
--------------------------------GGDASETDNLWADGEDGVSFIHPSSELF
LQPLAVTENHGEVEIRRHLNCSHCPLRDCQWQAELQLAECLCPEGMELAVDNVTCMDLHK
PPGPLVLMVAVVATSTLSLLMVCGVLIL----------------VKQKKWQGLQEMRLPS
PELELSKLRTSAIRTAPNPYYCQVGLGPAQSWPLPPGVTEVSPANVTLLRALGHGAFGEV
YEGLVIGLPGDSSPLQVAIKTLPELCSPQDELDFLMEALIISKFRHQNIVRCVGLSLRAT
PRLILLELMSGGDMKSFLRHSRPHLGQPSPLVMRDLLQLAQDIAQGCHYLEENHFIHRDI
AARNCLLSCAGPSRVAKIGDFGMARDIYRASYYRRGDRALLPVKWMPPEAFLEGIFTSKT
DSWSFGVLLWEIFSLGYMPYPGRTNQEVLDFVVGGGRMDPPRGCPGPVYRIMTQCWQHEP
ELRPSFASILERLQYCTQDPDVLNSLLPMELGPTPEEEGTSGLGNRSLECLRPPQPQELS
PEKLKSWGGSPLGPWLSSGLKPLKSRGLQPQNLWNPTYRS
>LTK|ENST00000561619|H3BVG6|
------------------------------------------------------------
------------------------------------------------------------
------------------------------------------------------------
------------------------------------------------------------
---------------------------------------------------------MGC
---WGQL------------------LVWFGAAGGDASETDNLWADGEDGVSFIHPSSELF
LQPLAVTENHGEVEIRRHLNCSHCPLRDCQWQAELQLAECLCPEGMELAVDNVTCMDLHK
PPGPLVLMVAVVATSTLSLLMVCGVLILGTKRLAGTVDSRLLLSMKQKKWQGLQEMRLPS
PELELSKLRTSAIRTAPNPYYCQVGLGPAQSWPLPPGVTEVSPANVTLLRALGHGAFGEV
YEGLVIGLPGDSSPLQVAIKTLPELCSPQDELDFLMEALIISKFRHQNIVRCVGLSLRAT
PRLILLELMSGGDMKSFLRHSRPHLGQPSPLVMRDLLQLAQDIAQGCHYLEENHFIHRDI
AARNCLLSCAGPSRVAKIGDFGMARDIYRASYYRRGDRALLPVKWMPPEAFLEGIFTSKT
DSWSFGVLLWEIFSLGYMPYPGRTNQEVLDFVVGGGRMDPPRGCPGPVYRIMTQCWQHEP
ELRPSFASILERLQYCTQDPDVLNSLLPMELGPTPEEEGTSGLGNRSLECLRPPQPQELS
PEKLKSWGGSPLGPWLSSGLKPLKSRGLQPQNLWNPTYRS
